CoresoETL/UCT_Source/20221102_1230_FO3_BE0.UCT
##C 2007.05.01
UCTE Export
_2_UCT__202211011636_114a74-Study Case - Weekly (Today)

----- NODE BLOCK -----
_________1_________2_________3_________4_________5_________6_________7_________8_________9________10________11________12________13
1234567890123456789012345678901234567890123456789012345678901234567890123456789012345678901234567890123456789012345678901234567890
Node    |Node Name   |S|T|Volt  |PLoad  |QLoad  |PGen   |QGen   |Pmin   |Pmax   |Qmin   |Qmax   |Sta  |Pprim  |Sks__  |X/R    |T|

##N
##ZBE
BAALNO31 AALNO150     0 0              0       0       0       0 
BAALNO32 AALNO150     0 0        17.5209 3.42892       0       0 
BAALST31 AALST150     0 0        6.70502 -6.2804       0       0 
BAALTR31 AALTR150     0 0        10.8511 0.13849       0       0 
BAALTR32 AALTR150     0 0        10.6881 2.52965       0       0 
BACHEN11 ACHEN380     0 0        12.5618 -4.3018       0       0 
BACHEN12 ACHEN380     0 0              0       0       0       0 
BACHES11 ACHES380     0 0        2.18342 -1.5787       0       0 
BAIRLI31 AIRLI150     0 0        25.0917 15.4025       0       0 
BALEGR11 ALEGR380     0 0              0       0       0       0       0 -1000.0 500.000 -500.00 
BALZ  31 ALZ 150      0 0        9.56534 6.25871       0       0 
BALZ  33 ALZ 150      0 0        15.8013 -1.4494       0       0 
BALZ  34 ALZ 150      0 0        27.7530 1.87822 -0.6000 -0.0600 
BALZ  32 ALZ 150      0 0        0.11212 1.00546       0       0 
BAMERC3W AMERC 12     0 2 155.79       0       0 -65.324 15.8605 
BAMERC3V AMERC 16     0 2 155.63       0       0 -115.20 41.1616 -86.400 -276.20 80.1684 -140.90 
BAMERC3C AMERC150     0 0              0       0       0       0 
BAMERC31 AMERC150     0 0              0       0       0       0 
BAMOCO31 AMOCO150     0 0        63.1777 16.1469       0       0 
BANDUM31 ANDUM150     0 0              0       0       0       0 
BANDUM30 ANDUM150     0 0              0       0       0       0 
BANDUM32 ANDUM150     0 0              0       0       0       0 
BANDUM33 ANDUM150     0 0              0       0       0       0 
BANDUM1R ANDUM380     0 0              0       0       0       0 
BANS  31 ANS 150      0 0        18.6532 -12.648       0       0 
BANS  32 ANS 150      0 0        8.57849 -0.6464       0       0 
BANTOI30 ANTOI 15     0 0        15.7130 -0.0944 -8.7474 -0.8745 
BANTOI31 ANTOI150     0 0        11.9408 2.12523       0       0 
BATOFI3A ATOFI150     0 0        8.34235 2.79240       0       0 
BATOFI3B ATOFI150     0 0        2.57732 0.85097       0       0 
BAUBAN23 AUBAN220     0 0              0       0       0       0 
BAUBAN21 AUBAN220     0 0        20.0176 130.607       0       0 
BAUBAN22 AUBAN220     0 0        0.18667 134.820       0       0 
BAUBAN11 AUBAN380     0 0              0       0       0       0 
BAUVEL3R AUVEL150     0 0        9.26894 0.75143       0       0 
BAUVEL33 AUVEL150     0 0        9.36553 -0.3667       0       0 
BAUVEL32 AUVEL150     0 0        3.69087 3.87832       0       0 
BAVERN3R AVERN150     0 0        0.10871 0.70088       0       0 
BAVERN3S AVERN150     0 0        4.36596 -0.3945       0       0 
BAVERN31 AVERN150     0 2 157.98 4.33889 -0.5690 -12.000 6.58000       0 -32.000 6.58000 -27.000 
BAVERN32 AVERN150     0 0        0.13204 82.5269       0       0 
BAVLGM31 AVLGM150     0 0              0       0       0       0 
BAVLGM32 AVLGM150     0 0              0       0       0       0 
BAVLGM11 AVLGM380     0 0              0       0       0       0 
BAVLGM12 AVLGM380     0 0              0       0       0       0 
BAWIRS31 AWIRS150     0 0              0       0       0       0 
BAWIRS21 AWIRS220     0 0        23.0163 1.27922       0       0 
BBAISY31 BAISY150     0 0        51.2146 -32.320       0       0 
BBALEN32 BALE+150     0 0              0       0       0       0 
BBALEN3R BALEN150     0 0              0       0       0       0 
BBALEN31 BALEN150     0 0              0       0       0       0 
BBALEN3_ BALEN150     0 0              0       0       0       0 
BBASCO3R BASCO150     0 0        0.01510 0.03115       0       0 
BBASCO32 BASCO150     0 0        13.4401 0.91395       0       0 
BBASF 3_ BASF 150     0 0        0.06795 0.50526       0       0 
BBASF 34 BASF 150     0 0        69.7119 8.09313       0       0 
BBASF 31 BASF 150     0 0        75.2741 31.9580 -12.379 -1.2380 
BBASF 3B BASF 150     0 0        79.4176 33.8769       0       0 
BBASF 32 BASF 150     0 0        55.9723 23.0149       0       0 
BBASF 3A BASF 150     0 0        62.1135 26.8595       0       0 
BBASF 3W BASF 21      0 0              0       0       0       0 -230.00 -352.00 143.450 -220.91 
BBASSW3R BASSW150     0 0        24.5738 16.5681       0       0 
BBASTO2R BASTO220     0 0        0.05161 0.06327       0       0 
BBATTI3R BATTI150     0 0        6.82431 -0.9072       0       0 
BBAUDO3W BAUDO 24     0 0              0       0       0       0 -130.00 -337.90 125.120 -298.35 
BBAUDO31 BAUDO150     0 0              0       0       0       0 
BBAUDO32 BAUDO150     0 0        23.6932 9.95834       0       0 
BBAYMI3R BAYMI150     0 0        30.2661 9.49110       0       0 
BBEERS31 BEERS150     0 0              0       0       0       0 
BBEERS32 BEERS150     0 0        47.1001 -26.449       0       0 
BBEERS3A BEERS150     0 0              0       0       0       0 
BBEERS3B BEERS150     0 0              0       0       0       0 
BBERIN31 BERIN150     0 0        12.9655 -1.4629       0       0 
BBERIN32 BERIN150     0 0        9.65801 -2.1227       0       0 
BBERNE21 BERNE220     0 0        0.20508 0.03368       0       0 
BBERST32 BERST150     0 0        4.26188 0.06016       0       0 
BBERST3R BERST150     0 0        4.17049 -0.0959       0       0 
BBIFF+22 BIFF+220     0 0              0       0       0       0 
BBINCH31 BINCH150     0 0        7.33869 0.06466       0       0 
BBLANC31 BLANC150     0 0        9.40892 1.31289       0       0 
BBLANC32 BLANC150     0 0        0.02643 19.0145       0       0 
BBLTOR31 BLTOR150     0 0              0       0       0       0 
BBLTOR32 BLTOR150     0 0              0       0       0       0 
BBOLAL32 BOLAL150     0 0        1.69109 -12.469       0       0 
BBOTCC3R BOTCC150     0 0        20.6633 -5.5540       0       0 
BBOTCC32 BOTCC150     0 0        0.04929 0.36785       0       0 
BBO_HF31 BO_HF150     0 0        2.90934 14.0898       0       0 
BBRAIN31 BRAIN150     0 0        17.4508 1.07126       0       0 
BBRESS31 BRESS150     0 0        0.02277 0.09463       0       0 
BBRESS32 BRESS150     0 0        15.6011 4.92973       0       0 
BBRUEG11 BRUEG 36     0 0              0       0       0       0 
BBRUEG31 BRUEG150     0 0              0       0       0       0 
BBRUEG3B BRUEG150     0 0              0       0       0       0 
BBRUEG32 BRUEG150     0 0              0       0       0       0 
BBRUEG3A BRUEG150     0 0              0       0       0       0 
BBRUEG1A BRUEG380     0 0              0       0       0       0 
BBRUEG12 BRUEG380     0 0              0       0       0       0 
BBRUGG31 BRUGG150     0 0        32.1663 74.7864       0       0 
BBRUGG32 BRUGG150     0 0        19.4518 3.58095       0       0 
BBRUME21 BRUME220     0 0        0.91327 0.86221       0       0 
BBRUME11 BRUME380     0 0              0       0       0       0       0 -9999.0 64.9400 -64.940 
BBRUME12 BRUME380     0 0        5.95330 -14.605 -4.5724 -4.2303 
BBRUMS2R BRUMS220     0 0        0.03169 0.08966       0       0 
BBRUST3R BRUST150     0 0        23.6195 8.59114       0       0 
BBUGG+12 BUGG+380     0 0              0       0       0       0 
BBUGG+1R BUGG+380     0 0              0       0       0       0 
BBUIZI31 BUIZI150     0 0        25.5349 -0.7710       0       0 
BBURCH31 BURCH150     0 0        0.53656 -5.1934       0       0 
BBVERW31 BVERW 15     0 0        12.0484 -1.9581 -9.0898 -0.9086 
BBVERW3A BVERW150     0 0              0       0 -10.998 -2.5655 
BBVERW3R BVERW150     0 0              0       0       0       0 
BBVERW32 BVERW150     0 0        2.89453 -4.2124       0       0 
BBVREN30 BVREN 15     0 0        9.47499 0.68122 -5.7509 -0.5750 
BBVREN31 BVREN150     0 0              0       0       0       0 
BBVREN32 BVREN150     0 0        11.1061 1.62783       0       0 
BBWTON31 BWTON150     0 0        35.4864 11.5865       0       0 
BCAMOC31 CAMOC150     0 0        0.01608 0.00779       0       0 
BCARAL3R CARAL150     0 0        1.55352 1.56207       0       0 
BCBR3A32 CBR3A150     0 0        10.7803 4.06646       0       0 
BCBR3A33 CBR3A150     0 0        0.05271 0.33490       0       0 
BCFINF37 CFINF150     0 0              0       0 -38.785 -5.1627 
BCFINF38 CFINF150     0 0              0       0 -38.729 -4.8373 
BCHACO31 CHACO150     0 0        5.42926 -3.1502       0       0 
BCHAMP11 CHAMP380     0 0        29.5190 -15.453       0       0 
BCHAMP12 CHAMP380     0 0        28.7922 15.2772       0       0 
BCHARL3R CHARL150     0 0        0.01682 0.00495       0       0 
BCHARL3S CHARL150     0 0        10.5738 2.57334       0       0 
BCHER+3R CHER+150     0 0              0       0       0       0 
BCHERA34 CHERA150     0 0              0       0 -0.6037 0.30327 
BCHERA3R CHERA150     0 0        9.96385 0.50658       0       0 
BCHIEV31 CHIEV150     0 0        8.99539 2.28983       0       0 
BCHIEV32 CHIEV150     0 0              0       0       0       0 
BCKNIP3W CKNIP 16     0 2 157.23       0       0 -287.40 -4.7981 -104.00 -300.00 78.3767 -318.35 
BCKNIP31 CKNIP150     0 0              0       0       0       0 
BCLABE3S CLABE150     0 0              0       0       0       0 
BCLABE3R CLABE150     0 0              0       0       0       0 
BCLABE31 CLABE150     0 0        9.15406 2.75033       0       0 
BCLANG31 CLANG150     0 0        4.09042 0.97466       0       0 
BCLANG32 CLANG150     0 0        4.11426 1.01375       0       0 
BCLANG33 CLANG150     0 0        2.10190 -0.1746       0       0 
BCMARE3W CMARE 20     0 0        0.01396 0.10145       0       0 -173.00 -384.00 143.290 -158.17 
BCMARE31 CMARE150     0 0        0.01676 0.01478       0       0 
BCOO  1R COO 20       0 0              0       0       0       0 145.000 -145.00 39.9800 -97.260 
BCOO  1S COO 20       0 0              0       0       0       0 145.000 -145.00 39.9800 -97.260 
BCOO  1T COO 20       0 0              0       0       0       0 145.000 -145.00 39.9800 -97.260 
BCOO  1U COO 20       0 2 406.93       0       0 200.000 1.00193 200.000 -215.00 65.3700 -136.03 
BCOO  1V COO 20       0 0              0       0       0       0 200.000 -215.00 65.3700 -136.03 
BCOO  1W COO 20       0 2 406.93       0       0 200.000 1.00193 200.000 -215.00 65.3700 -136.03 
BCOO  11 COO 380      0 0        0.05522 0.00639       0       0 
BCOO  12 COO 380      0 0              0       0       0       0 
BCORBA3R CORBA150     0 0        12.4183 -3.9796       0       0 
BCOURC3R COURC150     0 0              0       0       0       0 
BCOURC11 COURC380     0 0              0       0       0       0 
BCOURC12 COURC380     0 0              0       0       0       0 
BCQUIN31 CQUIN150     0 0        13.9411 3.23049       0       0 
BCZWIJ3U CZWIJ 11     0 0              0       0 -22.000 -1.3572 -16.000 -38.700 1.92334 -26.011 
BCZWIJ3V CZWIJ 11     0 0              0       0 -22.000 -1.5047 -16.000 -38.700 1.12743 -31.152 
BCZWIJ3W CZWIJ 11     0 0              0       0 -22.000 -1.7229 -16.000 -38.600 1.92334 -26.011 
BCZWIJ31 CZWIJ150     0 0        9.80748 3.11864       0       0 
BCZWIJ32 CZWIJ150     0 0        36.9606 22.2357       0       0 
BDAMPL31 DAMPL150     0 0        11.9807 1.23644       0       0 
BDAMPL32 DAMPL150     0 0        12.1054 1.24637       0       0 
BDAMPR3R DAMPR150     0 0              0       0       0       0 
BDAMPR31 DAMPR150     0 0        6.50151 -1.6131 -0.0628 -0.0062       0 -1.0628 0.12000 -0.1200 
BDAMPR32 DAMPR150     0 0              0       0       0       0 
BDAMPS35 DAMPS150     0 0        0.03669 0.06219       0       0 
BDAMPS36 DAMPS150     0 0        0.03665 0.06230       0       0 
BDEIN+3R DEIN+150     0 0              0       0       0       0 
BDEIN+32 DEIN+150     0 0              0       0       0       0 
BDEINZ31 DEINZ150     0 0        6.92283 2.23425       0       0 
BDEINZ32 DEINZ150     0 0        6.71306 2.02883       0       0 
BDESG+3R DESG+150     0 0              0       0       0       0 
BDESGM31 DESGM150     0 0        3.86620 0.13857       0       0 
BDHANI3A DHANI150     0 0        25.1700 4.45757       0       0 
BDHANI3B DHANI150     0 0              0       0       0       0 
BDHANI3C DHANI150     0 0        31.8847 -0.9748       0       0 
BDIEST3R DIEST150     0 0        10.8991 -20.201       0       0 
BDILB+31 DILB+150     0 0              0       0       0       0 
BDILBE3R DILBE150     0 0        9.21391 -1.1459       0       0 
BDOEL 31 DOEL 150     0 0        0.91279 0.19128       0       0 
BDOEL 32 DOEL 150     0 0              0       0       0       0 
BDOEL 1T DOEL 18      0 2 409.46       0       0 -446.80 -10.467 -182.00 -446.80 53.4537 -259.09 
BDOEL 1U DOEL 18      0 2 409.57       0       0 -440.80 -11.626 -182.00 -440.80 54.0259 -258.44 
BDOEL 1W DOEL 24      0 3 409.62       0       0 -1027.8 -15.729 -500.00 -1027.8 110.770 -575.00 
BDOEL 11 DOEL 380     0 0              0       0       0       0 
BDOEL 1B DOEL 380     0 0              0       0       0       0 
BDOEL 12 DOEL 380     0 0              0       0       0       0 
BDOEL 1A DOEL 380     0 0              0       0       0       0 
BDOTT+3R DOTT+150     0 0              0       0       0       0 
BDOTTI31 DOTTI150     0 0              0       0       0       0 
BDROGE3U DROGE 15     0 0              0       0       0       0 -50.100 -154.70 36.3300 -140.10 
BDROGE3V DROGE 15     0 0              0       0       0       0 -50.100 -154.30 36.3100 -136.99 
BDROGE3W DROGE 15     0 0              0       0       0       0 -26.300 -171.80 36.3500 -125.52 
BDROGE31 DROGE150     0 0        40.7653 21.2790       0       0 
BDROGE33 DROGE150     0 0        35.9094 -22.164       0       0 
BDROGE11 DROGE380     0 0              0       0       0       0 
BDRONG3R DRONG150     0 0              0       0       0       0 
BEEKLN31 EEKLN150     0 0        0.97805 -1.1281       0       0 
BEEKLN32 EEKLN150     0 0        0.13434 77.5066 -16.972 -1.7847 
BEEKLN11 EEKLN380     0 0              0       0       0       0 
BEEKLO3R EEKLO150     0 0        5.74524 -0.6761       0       0 
BEEKLO32 EEKLO150     0 0        5.69711 -0.6657       0       0 
BEISDE31 EISDE150     0 0              0       0       0       0 
BEISDE32 EISDE150     0 0        12.9004 -4.3699       0       0 
BEIZE+3R EIZE+150     0 0              0       0       0       0 
BEIZER31 EIZER150     0 0        6.59619 -1.5829       0       0 
BEKERE31 EKERE150     0 0        0.02898 0.12224       0       0 
BESCH 2C ESCH 220     0 0        51.6514 19.5717       0       0 
BESCH 2E ESCH 220     0 0              0       0       0       0 
BESSO 3W ESSO 15      0 0              0       0 -115.00 -9.4170 -1.0000 -140.00 2.12872 -73.509 
BESSO 3K ESSO 150     0 0              0       0       0       0 
BESSO 31 ESSO 150     0 0        24.3365 15.7739       0       0 
BESSO 32 ESSO 150     0 0        33.3519 18.3393       0       0 
BESSO+3R ESSO+150     0 0              0       0       0       0 
BESSO+32 ESSO+150     0 0              0       0       0       0 
BESSOC31 ESSOC150     0 0        15.7889 3.14549       0       0 
BESSOC32 ESSOC150     0 0        18.3832 6.91950       0       0 
BEUPEN3R EUPEN150     0 0        16.5096 -1.7440       0       0 
BEUPEN32 EUPEN150     0 0        16.5737 1.38750       0       0 
BFAFER3R FAFER150     0 0        53.7672 -1.9063       0       0 
BFAFER31 FAFER150     0 0        7.55443 7.41035       0       0 
BFARCI31 FARCI 10     0 0        17.8265 0.75409 -10.551 -1.0551 
BFARCI3R FARCI150     0 0              0       0       0       0 
BFARCI32 FARCI150     0 0              0       0       0       0 
BFELUY3R FELUY150     0 0        3.53042 4.32974       0       0 
BFIBER3R FIBER150     0 0        10.3581 3.52493       0       0 
BFLEUR32 FLEUR150     0 0        10.0497 0.18261       0       0 
BFLEUR31 FLEUR150     0 0        1.07869 2.13267       0       0 
BFLORA3R FLORA150     0 0        34.6013 0.01007       0       0 
BFLORA32 FLORA150     0 0        34.6011 -0.0037       0       0 
BFOC  3R FOC 150      0 0        30.0509 14.0908       0       0 
BFOC+ 3R FOC+ 150     0 0              0       0       0       0 
BFONTA3R FONT+150     0 0              0       0       0       0 
BFONT+3  FONT+150     0 0              0       0       0       0 
BFONTA33 FONTA150     0 0        0.01568 0.03237       0       0 
BFONTA32 FONTA150     0 0        4.00821 -0.2362       0       0 
BFORES3A FORES150     0 0        20.1840 1.87039       0       0 
BFORES3B FORES150     0 0              0       0       0       0 
BGALGE11 GALGE380     0 0              0       0       0       0 
BGASTH3A GASTH150     0 0        46.2468 12.7778       0       0 
BGAURA3R GAURA150     0 0        34.8943 18.4128       0       0 
BGAURA32 GAURA150     0 0        0.04619 0.20088       0       0 
BGENPM31 GENPM150     0 0        60.4733 14.3933       0       0 
BGEZEL11 GEZEL380     0 0        0.21201 133.145       0       0 
BGEZEL12 GEZEL380     0 0        0.21201 133.145       0       0 
BGILLY37 GILLY150     0 0        11.7814 1.33264       0       0 
BGODSH31 GODSH150     0 0        29.9382 -7.9437       0       0 
BGOSS+3R GOSS+150     0 0              0       0       0       0 
BGOSS+32 GOSS+150     0 0              0       0       0       0 
BGOSSE32 GOSSE150     0 0        6.37752 1.41758       0       0 
BGOSSE31 GOSSE150     0 0        0.86589 0.73614       0       0 
BGOUY 31 GOUY 150     0 0        8.94438 1.08955       0       0 
BGOUY 32 GOUY 150     0 0        38.7390 -5.0236       0       0 
BGOUY 11 GOUY 380     0 0              0       0       0       0 
BGOUY 12 GOUY 380     0 0              0       0       0       0 
BGRAMM3A GRAMM150     0 0              0       0       0       0 
BGRAMM3B GRAMM150     0 0              0       0       0       0 
BGRAMM1A GRAMM380     0 0              0       0       0       0 
BGRAMM1B GRAMM380     0 0              0       0       0       0 
BGRAMM1C GRAMM380     0 0              0       0       0       0 
BGRAMM1D GRAMM380     0 0              0       0       0       0 
BGRIMB32 GRIMB150     0 0        0.02545 0.05554       0       0 
BGRIMB3R GRIMB150     0 0        8.24289 -1.2520       0       0 
BHAM  32 HAM 150      0 0        7.40383 1.10354       0       0 
BHAM  3R HAM 150      0 0        25.1163 10.9948       0       0 
BHARE+32 HARE+150     0 0              0       0       0       0 
BHARE+3R HARE+150     0 0              0       0       0       0 
BHAREL31 HAREL150     0 0        10.2156 -3.6331       0       0 
BHAREL32 HAREL150     0 0        9.82308 -3.4725       0       0 
BHARMI3R HARMI150     0 0        4.13984 3.82222       0       0 
BHARWI3R HARWI150     0 0              0       0       0       0 
BHARYD31 HARYD150     0 0        16.9028 1.75171       0       0 
BHAVE731 HAVE7150     0 0        5.22822 0.69297       0       0 
BHAVE732 HAVE7150     0 0        5.45881 1.09806       0       0 
BHBRUG3U HBRUG 15     0 0              0       0       0       0 -52.800 -162.80 53.6900 -99.120 
BHBRUG3V HBRUG 15     0 0              0       0       0       0 -43.800 -180.50 53.6900 -98.030 
BHBRUG3W HBRUG 15     0 0              0       0       0       0 -24.600 -68.400 53.6900 -88.290 
BHBRUG31 HBRUG150     0 0              0       0       0       0 
BHBRUG32 HBRUG150     0 0              0       0       0       0 
BHBRUG33 HBRUG150     0 0              0       0       0       0 
BHDPE 31 HDPE 6       0 0        8.30582 2.42541 -6.9894 -0.6989       0 -14.600 15.3700 -15.370 
BHDPE 3A HDPE 150     0 0              0       0       0       0 
BHDPE 3B HDPE 150     0 0        13.1306 1.42592       0       0 
BHEIM+32 HEIM+150     0 0              0       0       0       0 
BHEIMO3R HEIMO150     0 0              0       0       0       0 
BHEIMO3S HEIMO150     0 0        4.96266 -0.4881       0       0 
BHEIMO31 HEIMO150     0 0              0       0       0       0 
BHEINS23 HEINS220     0 0        10.9352 -5.9116       0       0 
BHEISS21 HEISS220     0 0              0       0       0       0 
BHEISS22 HEISS220     0 0              0       0       0       0 
BHEIST31 HEIST150     0 0        2.04253 -1.2194       0       0 
BHEIST32 HEIST150     0 0        1.52825 -0.8948       0       0 
BHELIA31 HELIA 11     0 0        21.7308 3.12899 -3.4987 -0.3500 
BHELIA3R HELIA150     0 0        40.3163 18.1368       0       0 
BHELIP31 HELIP150     0 0              0       0       0       0 
BHELIP32 HELIP150     0 0              0       0       0       0 
BHERCU31 HERCU 10     0 0        20.5221 4.66326 -19.327 -1.9327       0 -24.000 25.2700 -25.270 
BHERCU3R HERCU150     0 0              0       0       0       0 
BHERCU32 HERCU150     0 0              0       0       0       0 
BHERDE3R HERDE150     0 0              0       0 -1.3803 0.25114 
BHERDE32 HERDE150     0 0        0.02410 0.02213       0       0 
BHEULE31 HEULE150     0 0        9.99772 1.90395       0       0 
BHEZE 31 HEZE 150     0 0        29.5314 1.41290       0       0 
BHOEN+3R HOEN+150     0 0              0       0       0       0 
BHOEN+32 HOEN+150     0 0              0       0       0       0 
BHOOGS3R HOOGS150     0 0        8.72972 -0.4458 -13.244 -12.272 
BHORTA11 HORTA380     0 0        0.20018 132.772       0       0 
BHORTA12 HORTA380     0 0              0       0       0       0 
BHOUF+2R HOUF+220     0 0              0       0       0       0 
BHOUFF21 HOUFF220     0 0              0       0       0       0 
BHOUT+3R HOUT+150     0 0              0       0       0       0 
BHOUTH31 HOUTH150     0 0        23.2319 -0.5976       0       0 
BHSART3R HSART150     0 0              0       0       0       0 
BIEPER31 IEPER150     0 0        32.7432 -7.1657 -21.539 -2.1543 
BIEPNO3R IEPNO150     0 0              0       0 -9.4382 0.53349 
BIEPNO31 IEPNO150     0 0        19.4914 7.92485       0       0 
BIXELL33 IXELL150     0 0        30.6586 -2.3983       0       0 
BIXELL34 IXELL150     0 0        19.9094 4.26828       0       0 
BIZGEM31 IZGEM150     0 0        0.01438 -81.601 -1.7397 0.56548 
BIZGEM32 IZGEM150     0 0        19.0842 -76.551       0       0 
BIZGEM1R IZGEM380     0 0              0       0       0       0 
BIZGEM12 IZGEM380     0 0              0       0       0       0 
BJEMAP3R JEMAP150     0 0        16.0741 3.10581       0       0 
BJUPIL32 JUPIL150     0 0              0       0       0       0 
BJUPIL3R JUPIL150     0 0              0       0       0       0 
BJUPIL21 JUPIL220     0 0              0       0       0       0 
BJUPIL22 JUPIL220     0 0              0       0       0       0 
BKALLO15 KALLO380     0 0              0       0       0       0 
BKALLO31 KALLO150     0 0        0.07780 0.61772       0       0 
BKALLO33 KALLO150     0 0              0       0       0       0 
BKAMEU31 KAMEU150     0 0              0       0       0       0 
BKAMEU32 KAMEU150     0 0              0       0       0       0 
BKEER+3R KEER+150     0 0              0       0       0       0 
BKENNE3R KENNE150     0 0        34.6948 1.10611       0       0 
BKENNE32 KENNE150     0 0        33.8317 2.17934       0       0 
BKETEN30 KETEN 36     0 0        57.1923 12.4939 -79.619 -1.4817 
BKETEN31 KETEN150     0 0        14.9435 -0.0409       0       0 
BKETEN32 KETEN150     0 0              0       0 -7.3615 2.15811 
BKOBB+3R KOBB+150     0 0              0       0       0       0 
BKOBBE31 KOBBE150     0 0        7.09090 -0.4000       0       0 
BKOKSI30 KOKSI 11     0 0        23.2033 1.46357 -14.016 -1.4020 
BKOKSI3A KOKSI150     0 0        2.71825 -1.0238       0       0 
BKOKSI31 KOKSI150     0 0        30.3197 -5.6224       0       0 
BKOKSI32 KOKSI150     0 0              0       0       0       0 
BKRUSS31 KRUSS150     0 2 156.55 58.2954 11.8962 -22.000 -5.4935       0 -22.000 49.3300 -49.330 
BKRUSS32 KRUSS150     0 0        73.3242 10.1828       0       0 
BKUUR+3R KUUR+150     0 0              0       0       0       0 
BKUURN31 KUURN150     0 0        2.47619 1.28499       0       0 
BLACRO31 LACRO150     0 0              0       0       0       0 
BLACRO30 LACRO150     0 0              0       0       0       0 
BLACRO32 LACRO150     0 0              0       0       0       0 
BLACRO33 LACRO150     0 0              0       0       0       0 
BLACRO34 LACRO150     0 0              0       0       0       0 
BLACRO35 LACRO150     0 0              0       0       0       0 
BLACRO36 LACRO150     0 0              0       0       0       0 
BLACRO37 LACRO150     0 0              0       0       0       0 
BLACRO38 LACRO150     0 0              0       0       0       0 
BLACRO39 LACRO150     0 0        14.8507 1.95146       0       0 
BLACRO3A LACRO150     0 0        0.01518 0.03132       0       0 
BLACRO3B LACRO150     0 0              0       0 -0.9500 -0.8857 
BLANAK3W LANAK 10     0 2 146.86       0       0 -40.900 -3.7112 -20.000 -40.900 0.79639 -23.916 
BLANAK31 LANAK150     0 0        46.2907 17.9229 -0.0093 -0.0009       0 -1.2000 1.26000 -1.2600 
BLANDN3R LANDN150     0 0        4.46116 0.18586       0       0 
BLANGE31 LANGE150     0 0              0       0       0       0 
BLANGE32 LANGE150     0 0              0       0       0       0 
BLANLO31 LANLO150     0 0        24.1492 13.9177       0       0 
BLANLO32 LANLO150     0 0        28.1920 3.08400       0       0 
BLATO+2R LATO+220     0 0              0       0       0       0 
BLATOU20 LATOU 15     0 0        8.39951 3.87418 -2.5494 -0.2642 
BLATOU21 LATOU220     0 0              0       0       0       0 
BLATRO20 LATRO 10     0 0        32.7581 4.30753 -0.1152 -0.0115 
BLATRO21 LATRO220     0 0              0       0       0       0 
BLATRO22 LATRO220     0 0              0       0       0       0 
BLEES+32 LEES+150     0 0              0       0       0       0 
BLEES+3R LEES+150     0 0              0       0       0       0 
BLEVAL2V LEVAL 15     0 0              0       0       0       0 -72.000 -144.70 20.1100 -96.120 
BLEVAL2U LEVAL 15     0 0              0       0       0       0 -72.000 -144.70 20.1100 -96.090 
BLEVAL2W LEVAL 15     0 0              0       0       0       0 -120.00 -169.10 20.1100 -96.090 
BLEVAL21 LEVAL220     0 0              0       0       0       0 
BLEVAL22 LEVAL220     0 0              0       0       0       0 
BLIEF+1R LIEF+380     0 0              0       0       0       0 
BLIEF+1S LIEF+380     0 0              0       0       0       0 
BLIER 3T LIER 150     0 0        25.2581 -8.1776       0       0 
BLIER 3R LIER 150     0 0        5.98900 -2.8025       0       0 
BLIGNE31 LIGNE 15     0 0        23.2082 4.94239 -9.7457 -0.9746 
BLIGNE3R LIGNE150     0 0        4.33911 -7.0090       0       0 
BLIGNE32 LIGNE150     0 0              0       0       0       0 
BLILLO31 LILLO150     0 0              0       0       0       0 
BLILLO32 LILLO150     0 0        15.1271 6.45888       0       0 
BLILLO33 LILLO150     0 0              0       0       0       0 
BLILLO34 LILLO150     0 0              0       0       0       0 
BLILLO35 LILLO150     0 0        0.05403 0.23429       0       0 
BLILLO11 LILLO380     0 0              0       0       0       0 
BLILLO12 LILLO380     0 0              0       0       0       0 
BLILLO14 LILLO380     0 0              0       0       0       0 
BLINT 31 LINT 150     0 0              0       0       0       0 
BLINT 32 LINT 150     0 0              0       0       0       0 
BLINTT1R LINT 380     0 0              0       0       0       0 
BLINTT12 LINT 380     0 0              0       0       0       0 
BLIXHE21 LIXHE 15     0 0        12.6075 -1.6852 -5.3583 -0.5358 
BLIXHE23 LIXHE 15     0 0        19.3624 5.93050       0       0       0 -2.5000 2.63000 -2.6300 
BLIXHE31 LIXHE150     0 0              0       0       0       0 
BLIXHE32 LIXHE150     0 0        21.7485 9.57112       0       0 
BLIXHE27 LIXHE220     0 0              0       0       0       0 
BLIXHE11 LIXHE380     0 0              0       0       0       0 
BLIXHE12 LIXHE380     0 0              0       0       0       0 
BLOKER31 LOKER150     0 0        12.9513 -2.2578 -11.294 -2.9971 
BLOMME30 LOMME 26     0 0        20.5750 -3.9786 -21.803 -2.1801 
BLOMME31 LOMME150     0 0        7.03412 1.55472       0       0 
BMACHE31 MACHE150     0 0        23.0333 -11.093       0       0 
BMACHE32 MACHE150     0 0        11.7519 0.42516       0       0 
BMAERL11 MAERL380     0 0              0       0       0       0 
BMAERL12 MAERL380     0 0              0       0       0       0 
BMALDR3R MALDR150     0 0        26.5366 -43.580       0       0 
BMALDR32 MALDR150     0 0        26.7180 49.7061       0       0 
BMALEC31 MALEC150     0 0        4.79701 1.84824       0       0       0 -9999.0 7.79000 -7.7900 
BMALEC32 MALEC150     0 0        4.74029 1.82804       0       0 
BMALLE31 MALLE150     0 0              0       0       0       0 
BMALLE32 MALLE150     0 0        2.78078 -3.2987       0       0 
BMARC+2R MARC+220     0 0              0       0       0       0 
BMARCO21 MARCO220     0 0        9.21576 -8.7332       0       0 
BMARQ+3R MARQ+150     0 0              0       0       0       0 
BMARQU31 MARQU150     0 0        13.0848 1.79898       0       0 
BMASSE31 MASSE150     0 0              0       0       0       0 
BMASSE32 MASSE150     0 0              0       0       0       0 
BMASSE11 MASSE380     0 0              0       0       0       0 
BMCHIN31 MCHIN150     0 0        3.80769 5.02811       0       0 
BMECHL3R MECHL150     0 0              0       0       0       0 
BMECHL32 MECHL150     0 0        24.6396 -19.116       0       0 
BMECHL31 MECHL150     0 0        37.0184 29.3073       0       0 
BMEERH30 MEERH 15     0 0        12.9367 -2.4241 -8.8168 -0.8815 
BMEERH31 MEERH150     0 0        0.01753 0.01253       0       0 
BMEERH32 MEERH150     0 0              0       0       0       0 
BMEERH11 MEERH380     0 0              0       0       0       0 
BMEERH12 MEERH380     0 0              0       0       0       0 
BMEKI+1R MEKI+380     0 0              0       0       0       0 
BMERCA31 MERCA150     0 0              0       0       0       0 
BMERCA32 MERCA150     0 0              0       0       0       0 
BMERCA11 MERCA380     0 0              0       0       0       0 
BMERCA1B MERCA380     0 0              0       0       0       0 
BMERCA12 MERCA380     0 0              0       0       0       0 
BMERCA1A MERCA380     0 0              0       0       0       0 
BMERCH32 MERCH150     0 0        2.01457 -5.3091       0       0 
BMERCH3R MERCH150     0 0        18.5546 -10.490       0       0 
BMERKS31 MERKS150     0 0        52.4753 -6.2425       0       0 
BMERKS32 MERKS150     0 0        34.6150 6.95373       0       0 
BMEWST31 MEWST150     0 0              0       0       0       0 
BMEWST32 MEWST150     0 0        3.84709 -1.5667       0       0 
BMHIN+3R MHIN+150     0 0              0       0       0       0 
BMIDI 30 MIDI 11      0 0        14.7001 1.15585 -4.0242 -0.4024 
BMIDI 31 MIDI 150     0 0        28.8768 16.9229       0       0 
BMOEN+3R MOEN+150     0 0              0       0       0       0 
BMOEN+32 MOEN+150     0 0              0       0       0       0 
BMOL 131 MOL 15       0 2 138.04 42.7299 -3.4039 -34.841 2.18914 
BMOL  31 MOL 150      0 0        6.18545 3.33162       0       0 
BMOL  32 MOL 150      0 0        16.8855 -9.6905       0       0 
BMOLEN31 MOLEN150     0 0        19.8967 -4.1291       0       0 
BMOLEN32 MOLEN150     0 0              0       0       0       0 
BMOLEN3A MOLEN150     0 0              0       0       0       0 
BMOLEN3B MOLEN150     0 0        22.2280 -3.8014       0       0 
BMOLEN3C MOLEN150     0 0              0       0       0       0 
BMONCE30 MONCE 10     0 0        21.8102 1.98499 -5.6454 -0.5644 
BMONCE31 MONCE150     0 0              0       0       0       0 
BMONCE33 MONCE150     0 0        7.78691 -2.3523       0       0 
BMONCE2R MONCE220     0 0              0       0       0       0 
BMONTI31 MONTI150     0 0        20.5566 2.85308       0       0 
BMORTS30 MORTS 15     0 0        15.4906 -3.4320 -9.3638 -0.9365 
BMORTS31 MORTS150     0 0              0       0       0       0 
BMORTS32 MORTS150     0 0        1.26616 11.4119 -1.3079 -11.593 
BMOUSC32 MOUSC 10     0 0        26.3770 -4.4085 -3.3421 -0.3342 
BMOUSC33 MOUSC150     0 0              0       0       0       0 
BMOUSC34 MOUSC150     0 0        49.2459 26.6757       0       0 
BMZLR+3R MZLR+150     0 0              0       0       0       0 
BMZLR+32 MZLR+150     0 0              0       0       0       0 
BNDOKS31 NDOKS150     0 0        7.37831 -10.788       0       0 
BNDOKS32 NDOKS150     0 0        0.07094 0.45731       0       0 
BNEUVI31 NEUVI150     0 0              0       0 -8.3104 -2.6896 
BNIEUW30 NIEUW 12     0 0        22.3575 3.46166 -6.2765 -0.6279 
BNIEUW31 NIEUW150     0 0              0       0       0       0 
BNIEUW32 NIEUW150     0 0        20.0957 -7.1353       0       0 
BNINO+3R NINO+150     0 0              0       0       0       0 
BNINOV31 NINOV150     0 0        21.5008 3.86915       0       0 
BNINOV32 NINOV150     0 0        7.06473 -1.1125       0       0 
BNIVEL31 NIVEL150     0 0        0.03774 0.68844       0       0 
BNIVEL32 NIVEL150     0 0        3.26801 0.19715       0       0 
BNORDL31 NORDL150     0 0              0       0       0       0 
BOBOU+3R OBOU+150     0 0              0       0       0       0 
BOBOUR31 OBOUR150     0 0        28.3407 11.4731       0       0 
BOBOUR32 OBOUR150     0 0        1.41110 0.70188       0       0 
BOELEG32 OELEG150     0 0        3.23218 -0.7094       0       0 
BOELEG3R OELEG150     0 0        3.04988 -0.7109       0       0 
BOISQU31 OISQU150     0 0        43.7519 -5.5772       0       0 
BOOSTR30 OOSTR 10     0 0        13.4644 5.06679 -7.6854 -0.7685 
BOOSTR31 OOSTR150     0 0              0       0       0       0 
BOS1ST21 OS1ST220     0 0              0       0       0       0 
BOS1ST22 OS1ST220     0 0              0       0       0       0 
BOS2ST21 OS2ST220     0 2 231.58       0       0 -191.37 -29.910 -40.000 -307.00 75.0000 -75.000 
BOUDNA31 OUDNA150     0 0        13.1152 4.23867       0       0 
BOUDNA32 OUDNA150     0 0        9.52333 -0.4325       0       0 
BOVERP31 OVERP150     0 0        17.7761 5.42017       0       0 
BPACHE31 PACHE150     0 0              0       0       0       0 
BPACHE32 PACHE150     0 0        6.03266 0.89320       0       0 
BPEKK+32 PEKK+150     0 0              0       0       0       0 
BPEKK+3R PEKK+150     0 0              0       0       0       0 
BPEMA+3R PEMA+150     0 0              0       0       0       0 
BPEMA+32 PEMA+150     0 0              0       0       0       0 
BPEMA231 PEMA2150     0 0        15.0666 46.2580       0       0 
BPEMA232 PEMA2150     0 0        15.0666 46.2580       0       0 
BPEMAR31 PEMAR150     0 0        30.4135 1.58234       0       0 
BPEMAR3B PEMAR150     0 0        46.1971 4.02221       0       0 
BPETRO31 PETRO150     0 0        22.7011 1.68547       0       0 
BPITEM3T PITEM150     0 0        13.9788 6.47079       0       0 
BPITEM3U PITEM150     0 0        19.5398 7.01591       0       0 
BPLATE31 PLATE150     0 0        0.12708 0.81858       0       0 
BPOEDE3R POEDE150     0 0        1.52729 -2.7370       0       0 
BPOEDE3U POEDE150     0 0        1.35284 -2.3354       0       0 
BPONT+3R PONT+150     0 0              0       0       0       0 
BPOPSA30 POPSA150     0 0        0.01790 0.03706       0       0 
BPORTF31 PORTF150     0 0        28.3614 -7.6026       0       0 
BPORTP31 PORTP150     0 0        24.0745 -15.901       0       0 
BPORTP32 PORTP150     0 0        23.5831 -10.045       0       0 
BPP3  3A PP3 150      0 0        8.34064 2.73503       0       0 
BPP3  3B PP3 150      0 0        2.57283 0.81263       0       0 
BPRECH31 PRECH150     0 0        18.1192 -5.4043       0       0 
BPRECH32 PRECH150     0 0        14.1473 -2.6690       0       0 
BPUTTE31 PUTTE150     0 0        0.02540 0.14005       0       0 
BPUTTE32 PUTTE150     0 0              0       0 -5.4243 -1.6607 
BQDEME3R QDEME150     0 0        12.5806 8.25341       0       0 
BQUAR+32 QUAR+150     0 0              0       0       0       0 
BQUAR+3R QUAR+150     0 0              0       0       0       0 
BRELE+3R RELE+150     0 0              0       0       0       0 
BRELEG3R RELEG150     0 0        45.9036 0.41385       0       0 
BRHODE31 RHODE150     0 0        13.5656 2.02899       0       0 
BRIJKE31 RIJKE150     0 0        2.97468 -0.4089       0       0 
BRIJKE32 RIJKE150     0 0              0       0       0       0 
BRIMIE28 RIMIE220     0 0              0       0       0       0 
BRIMIE21 RIMIE220     0 0        21.2032 120.377       0       0 
BRIMIE22 RIMIE220     0 0              0       0       0       0 
BRIMIE1R RIMIE380     0 0              0       0       0       0 
BRINGV3W RINGV 24     0 0              0       0       0       0 -160.20 -372.40 35.3900 -167.87 
BRINGV31 RINGV150     0 0              0       0       0       0 
BRODE+1S RODE+380     0 0              0       0       0       0 
BRODE+1R RODE+380     0 0              0       0       0       0 
BRODEN3W RODEN 20     0 0              0       0       0       0 -80.000 -205.00 60.8400 -151.23 
BRODEN31 RODEN150     0 0              0       0       0       0 
BRODEN33 RODEN150     0 0              0       0       0       0 
BRODEN13 RODEN380     0 0              0       0       0       0 
BRODEN11 RODEN380     0 0              0       0       0       0 
BROEVG31 ROEVG150     0 0        0.07655 0.67496       0       0 
BROMSE21 ROMSE220     0 0        26.5707 -20.293       0       0 
BROMSS21 ROMSS220     0 0        2.77447 -2.0964       0       0 
BROMSS22 ROMSS220     0 0        0.04225 0.22356       0       0 
BROUVR21 ROUVR220     0 0        30.8479 0.38354       0       0 
BRUIEN31 RUIEN150     0 0              0       0       0       0 
BRUIEN32 RUIEN150     0 0        10.8374 -0.7443       0       0 
BRUIEN33 RUIEN150     0 0        28.3918 10.6334       0       0 
BRUMBE3R RUMBE150     0 0        9.43523 1.47820       0       0 
BRUMBE32 RUMBE150     0 0        9.43954 1.47965       0       0 
BSART 21 SART 220     0 0        21.6946 27.3424       0       0 
BSART+21 SART+220     0 0              0       0       0       0 
BSCARB30 SCARB 11     0 0        25.6197 1.04668 -8.1700 -0.8172 
BSCARB31 SCARB150     0 0        0.85594 8.48256       0       0 
BSCARB32 SCARB150     0 0        9.97748 12.7286       0       0 
BSCHD+3R SCHD+150     0 0              0       0       0       0 
BSCHD+32 SCHD+150     0 0              0       0       0       0 
BSCHED31 SCHED150     0 0        23.5849 38.4802       0       0 
BSCHED32 SCHED150     0 0        16.8953 -20.362       0       0 
BSCHEL31 SCHEL150     0 0        20.5235 -22.296       0       0       0 -9999.0 15.5900 -15.590 
BSCHEL3_ SCHEL150     0 0              0       0       0       0 
BSCHIF23 SCHIF220     0 0              0       0       0       0 
BSCHIF24 SCHIF220     0 0              0       0       0       0 
BSDALE31 SDALE150     0 0        19.2864 6.51131       0       0 
BSEILL31 SEILL150     0 0        7.69580 -19.634       0       0 
BSENO+2R SENO+220     0 0              0       0       0       0 
BSERAI21 SERAI220     0 0        21.2844 -26.249       0       0 
BSERAI22 SERAI220     0 0        19.0398 42.2653       0       0 
BSIDAL31 SIDAL150     0 0        27.3918 2.01288       0       0 
BSIDMA31 SIDMA150     0 0        0.17620 0.77317 -4.8378 -0.4840 
BSIDMA32 SIDMA150     0 0        227.783 18.7956       0       0 
BSIKE+32 SIKE+150     0 0              0       0       0       0 
BSIKE+3R SIKE+150     0 0              0       0       0       0 
BSIKEL32 SIKEL150     0 0        5.10675 3.06877       0       0 
BSIKEL3R SIKEL150     0 0        4.79251 3.17454       0       0 
BSJOB 31 SJOB 150     0 0        10.5874 -26.171       0       0 
BSLAAN31 SLAAN150     0 0        18.7757 3.60418       0       0 
BSLAAN32 SLAAN150     0 0        18.8987 3.55887       0       0 
BSLAAN33 SLAAN150     0 0              0       0       0       0 
BSLAAN34 SLAAN150     0 0              0       0       0       0 
BSLYKE30 SLYKE 11     0 0        12.7018 0.29231 -8.9253 -0.8928 
BSLYKE31 SLYKE150     0 0        12.4319 -4.8266       0       0 
BSLYKE32 SLYKE150     0 0        12.6430 72.8778       0       0 
BSMARD21 SMARD220     0 0        2.99641 -1.1121       0       0 
BSMARS23 SMARS220     0 0        0.02173 0.14008       0       0 
BSMARS24 SMARS220     0 0        3.46281 -1.3523       0       0 
BSOLAN30 SOLAN150     0 0        185.572 32.5895       0       0 
BSOLAN31 SOLAN150     0 0        0.09394 0.60563       0       0 
BSOLV231 SOLV2150     0 0        5.47112 26.9827       0       0 
BSOLV33R SOLV3150     0 0        0.41715 -0.8953       0       0 
BSTAD+32 STAD+150     0 0              0       0       0       0 
BSTAD+3R STAD+150     0 0              0       0       0       0 
BSTALE31 STALE150     0 0              0       0       0       0 
BSTALE33 STALE150     0 0        35.7791 -3.1457       0       0 
BSTALE34 STALE150     0 0              0       0       0       0 
BSTAM+1R STAM+380     0 0              0       0       0       0 
BSTBAV32 STBAV 10     0 0        11.9218 1.27361 -5.6174 -0.5617 
BSTBAV31 STBAV150     0 0        32.2309 14.4316       0       0 
BSTEVN3R STEVN150     0 0              0       0       0       0 
BSTEVN3S STEVN150     0 0              0       0       0       0 
BSTEVN21 STEVN220     0 0        0.15582 133.008       0       0 
BSTEVN2B STEVN220     0 0        0.15797 133.008       0       0 
BSTEVN2A STEVN220     0 0        0.16176 133.008       0       0 
BSTEVN22 STEVN220     0 0        0.16278 133.008       0       0 
BSTEVN11 STEVN380     0 0              0       0       0       0 
BSTEVN1B STEVN380     0 0        0.21200 133.137       0       0 
BSTEVN1A STEVN380     0 0              0       0       0       0 
BSTEVN12 STEVN380     0 0              0       0       0       0 
BSTGIL3R STGIL150     0 0        4.99236 -1.6648       0       0 
BSTGIL3U STGIL150     0 0        5.43373 10.5735       0       0 
BSTNIK31 STNIK150     0 0        11.6672 1.86894       0       0 
BSTPAU31 STPAU150     0 0              0       0 -1.4156 -1.0926 
BSTPAU32 STPAU150     0 0              0       0 -1.7491 -1.2102 
BTERGN3R TERGN150     0 0              0       0       0       0 
BTERGN31 TERGN150     0 0        0.08904 -12.007       0       0 
BTERGN32 TERGN150     0 0              0       0       0       0 
BTERGN11 TERGN380     0 0              0       0       0       0 
BTERL+32 TERL+150     0 0              0       0       0       0 
BTERL+3R TERL+150     0 0              0       0       0       0 
BTERTR3R TERTR150     0 0              0       0       0       0 
BTESSE3W TESSE 19     0 0              0       0 -240.00 -18.505 -240.00 -411.00 77.9274 -146.56 
BTESSE31 TESSE150     0 0        130.041 80.9581 -6.4252 -0.6425 
BTESSE32 TESSE150     0 0        0.12061 1.12816       0       0 
BTHORN31 THORN150     0 0        0.00069 69.0362 -101.70 1.12901 -30.000 -147.60 17.0846 -64.115 
BTHORN32 THORN150     0 0        0.00069 69.3361 -125.40 1.39210       0 -178.00 19.3428 -78.557 
BTHUIL37 THUIL150     0 0        0.83949 -0.4809       0       0 
BTHYCH3R THYCH150     0 0              0       0 -7.4199 -0.9737 
BTIBIS31 TIBIS150     0 0              0       0       0       0 
BTIBIS11 TIBIS380     0 0              0       0       0       0 
BTIELT31 TIELT150     0 0        15.6072 5.94488       0       0 
BTIEN+3R TIEN+150     0 0              0       0       0       0 
BTIEN+32 TIEN+150     0 0              0       0       0       0 
BTIENE33 TIENE150     0 0        10.1225 26.7868       0       0 
BTIENE32 TIENE150     0 0        29.7047 17.3832       0       0 
BTIHA+3R TIHA+150     0 0              0       0       0       0 
BTIHA11V TIHA1 18     0 2 410.17       0       0 -469.50 -22.449 -240.00 -469.50 52.3900 -279.34 
BTIHA11W TIHA1 18     0 2 410.19       0       0 -471.00 -22.754 -240.00 -471.00 52.3900 -279.34 
BTIHA11N TIHA1380     0 0              0       0       0       0 
BTIHA11S TIHA1380     0 0              0       0       0       0 
BTIHA21W TIHA2 24     0 2 409.83       0       0 -984.50 -16.077 -504.00 -984.50 105.520 -566.44 
BTIHA211 TIHA2380     0 0              0       0       0       0 
BTIHA311 TIHA3 24     0 2 408.85       0       0 -1012.4 -16.240 
BTIHA31W TIHA3380     0 0              0       0       0       0 
BTIHAN31 TIHAN150     0 0        1.22034 2.55618       0       0 
BTIHAN32 TIHAN150     0 0              0       0       0       0 
BTRIVI31 TRIVI150     0 0              0       0       0       0 
BTRIVI32 TRIVI150     0 0              0       0       0       0 
BUMBAL3R UMBAL150     0 0        40.2160 24.1366 -3.6497 -0.3650 
BUMBAL32 UMBAL150     0 0        0.03687 0.36240       0       0 
BUMBAL33 UMBAL150     0 0        49.4015 26.8464       0       0 
BUMHOB31 UMHOB150     0 0        23.2671 3.16909       0       0 
BUMHOB32 UMHOB150     0 0        0.02783 0.02243       0       0 
BUMOVE3R UMOVE150     0 0              0       0       0       0 
BUMOVE32 UMOVE150     0 0        0.05120 0.41386       0       0 
BVALE+3R VALE+150     0 0              0       0       0       0 
BVANYK15 VANYK380     0 0              0       0       0       0 
BVANYK17 VANYK380     0 0              0       0       0       0 
BVANYK16 VANYK380     0 0              0       0       0       0 
BVANYK18 VANYK380     0 0              0       0       0       0 
BVERBR3W VERBR 15     0 0              0       0       0       0 -114.60 -245.50 27.1900 -137.96 
BVERBR30 VERBR 15     0 0              0       0       0       0 -55.400 -115.90 15.0000 -105.00 
BVERBR3A VERBR150     0 0              0       0       0       0 
BVERBR3B VERBR150     0 0              0       0       0       0 
BVERBR32 VERBR150     0 0              0       0       0       0 
BVERBR3C VERBR150     0 0        0.06423 -0.2586       0       0 
BVERBT12 VERBR380     0 0              0       0       0       0 
BVERBT11 VERBR380     0 0              0       0       0       0 
BVHAIN3Z VHAIN150     0 0              0       0       0       0 
BVHAIN31 VHAIN150     0 0              0       0       0       0 
BVHAIN33 VHAIN150     0 0        5.22545 73.5908       0       0       0 -9999.0 15.5900 -15.590 
BVHAIN34 VHAIN150     0 0              0       0       0       0 
BVIEU+32 VIEU+150     0 0              0       0       0       0 
BVIEU+3R VIEU+150     0 0              0       0       0       0 
BVILLE21 VILLE220     0 0        6.15860 -3.2055 -3.6378 -2.8376 
BVILLE22 VILLE220     0 0        6.76428 -23.140 -3.6276 -2.8339 
BWALGO3R WALGO150     0 0        2.98518 1.80709       0       0 
BWALGO32 WALGO150     0 0        3.50183 1.63770       0       0 
BWATER3R WATER150     0 0        9.67720 -0.1431       0       0 
BWATT+3R WATT+150     0 0              0       0       0       0 
BWATT+32 WATT+150     0 0              0       0       0       0 
BWESPL30 WESPL 10     0 0        19.6756 0.02271 -14.860 -1.4856 
BWESPL32 WESPL150     0 0              0       0       0       0 
BWESPL31 WESPL150     0 0              0       0       0       0 
BWESTR31 WESTR150     0 0        16.8022 -0.2963       0       0 
BWESTR32 WESTR150     0 0        21.9727 9.69675       0       0 
BWIJGM31 WIJGM150     0 0              0       0       0       0 
BWILSE31 WILSE150     0 0        67.3209 -9.8688       0       0 
BWINK+3R WINK+150     0 0              0       0       0       0 
BWINK+32 WINK+150     0 0              0       0       0       0 
BWINKS31 WINKS150     0 0        0.14175 0.03743       0       0 
BWINKS32 WINKS150     0 0        0.25312 0.07558       0       0 
BWIRTZ3R WIRTZ150     0 0        0.02009 0.01507       0       0 
BWIRTZ31 WIRTZ150     0 0        21.4463 4.27723       0       0 
BWOLUW31 WOLUW150     0 0        47.7721 -17.409       0       0 
BWOMM+3R WOMM+150     0 0              0       0       0       0 
BWOMM+32 WOMM+150     0 0              0       0       0       0 
BWOMME30 WOMME 15     0 0        15.3881 0.14173 -0.6422 -0.0642 
BWOMME32 WOMME150     0 0              0       0       0       0 
BWOMME31 WOMME150     0 0              0       0 -0.6250 -1.7424 
BWORTG33 WORTG150     0 0              0       0       0       0 
BWORTG3R WORTG150     0 0              0       0       0       0 
BWORTG31 WORTG150     0 0        15.0043 4.16621       0       0 
BWORTG32 WORTG150     0 0        23.3888 12.1606       0       0 
BWP1OS21 WP1OS220     0 0              0       0 -229.60 12.3000       0 -252.00 12.3000 -55.350 
BWP2OS21 WP2OS220     0 0              0       0 -217.08 26.6000       0 -237.00 26.6000 -119.70 
BWP2ST22 WP2ST220     0 2 227.54       0       0 -284.71 95.9500       0 -370.00 95.9500 -95.950 
BWP3OS21 WP3OS220     0 0              0       0 -198.65 54.7623       0 -219.10 61.4100 -61.410 
BWVLGM31 WVLGM150     0 0        10.4267 0.22968       0       0 
BZANDV31 ZANDV150     0 0              0       0       0       0 
BZANDV30 ZANDV150     0 0              0       0       0       0 
BZANDV32 ZANDV150     0 0              0       0       0       0 
BZANDV14 ZANDV380     0 0              0       0       0       0 
BZANDV13 ZANDV380     0 0              0       0       0       0 
BZANDV15 ZANDV380     0 0              0       0       0       0 
BZANDV17 ZANDV380     0 0              0       0       0       0 
BZANDV16 ZANDV380     0 0              0       0       0       0 
BZANDV18 ZANDV380     0 0              0       0       0       0 
BZANDV11 ZANDV380     0 0              0       0       0       0 
BZANDV1A ZANDV380     0 0              0       0       0       0 
BZAVEN3R ZAVEN150     0 0        33.0136 19.0638       0       0 
BZBINT3R ZBINT150     0 0        0.33444 -2.7321       0       0 
BZBINT32 ZBINT150     0 0              0       0       0       0 
BZEDEL32 ZEDEL150     0 0        15.1469 -2.0235       0       0 
BZEDEL3R ZEDEL150     0 0        15.6153 -2.1021       0       0 
BZEEBR30 ZEEBR 36     0 0        33.0399 -9.3694 -26.080 -4.1958 -15.600 -15.600 5.00000 -11.000 
BZEEBR31 ZEEBR150     0 0              0       0 -130.13       0       0 -165.00 16.0237 -73.887 
BZEEBR32 ZEEBR150     0 0              0       0       0       0 
BZELEI3R ZELEI150     0 0        15.6125 -2.7971       0       0 
BZELEI32 ZELEI150     0 0        13.1976 -5.7305       0       0 
BZELI+3R ZELI+150     0 0              0       0       0       0 
BZNAAM21 ZNAAM220     0 0              0       0 -333.49 128.274 
BZOGLI31 ZOGLI150     0 0        26.6428 -1.2051       0       0 
BZUREN31 ZUREN150     0 0        21.4425 2.49399       0       0 
BZUREN32 ZUREN150     0 0        31.0627 -0.2470       0       0 
BZUTE+1R ZUTE+380     0 0              0       0       0       0 
BZWEVG31 ZWEVG150     0 0        1.26844 0.35039       0       0 
BZWEVG32 ZWEVG150     0 0        1.22190 0.35470       0       0 
BZWIJN31 ZWIJN150     0 0        47.6821 13.4360       0       0 
BZWIJN32 ZWIJN150     0 0        43.8818 12.3916       0       0 
BBRUEG1S              0 0              0       0       0       0 
##ZXX
XAC_LO11 XAC_LO11     0 0        960.814 -135.95       0       0 
XAU_M.21 XAU_M.21     0 0              0       0       0       0 
XAU_MO22 XAU_MO22     0 0        9.37250 -136.56       0       0 
XAU_SA21 XAU_SA21     0 0              0       0       0       0 
XAV_AV11 XAV_AV11     0 0              0       0       0       0 
XAV_MA11 XAV_MA11     0 0        1379.54 -56.574       0       0 
XBE_GB1B XBE_GB1B     0 0              0       0 867.200 78.3037 1025.00 -1000.0 336.000 -336.00 
XBE_OX21 XBE_OX21     0 0              0       0       0       0 
XKR_ZA11 XKR_ZA11     0 0        -812.52 -90.625       0       0 
XKR_ZA12 XKR_ZA12     0 0        -814.18 -89.420       0       0 
XLI_OB1B XLI_OB1B     0 0              0       0 324.412 104.361 1000.00 -1000.0 300.000 -300.00 
XMO_CH21 XMO_CH21     0 0        86.5769 -16.071       0       0 
XSC_SC21 XSC_SC21     0 0              0       0       0       0 
XSO_SO21 XSO_SO21     0 0              0 0.09661       0       0 
XSO_SO22 XSO_SO22     0 0              0 -1.0961       0       0 
XVY_MB11 XVY_MB11     0 0        -360.32 -21.384       0       0 
XVY_MB12 XVY_MB12     0 0        -360.14 -21.584       0       0 
##C

----- LINE BLOCK -----
_________1_________2_________3_________4_________5_________6_________7
1234567890123456789012345678901234567890123456789012345678901234567890
Node 1  |Node 2  |O|S|R(Ohm)|X(Ohm)|B(uS)   |I(A)  |Element Name|

##L
BAALNO31 BSTGIL3R 6 0 0.6001 3.1201 22.30222    959 DI 150 136 A
BAALNO32 BSTGIL3U 7 0 0.6001 3.1201 22.30222    959 DI 150 137 A
BAALST31 BNINO+3R 9 0 0.7340 3.6221 25.88445    898 DI 150 159 A
BAALTR31 BEEKLN31 5 0 1.0899 6.5601 46.40000    959 DI 150 165 A
BAALTR32 BEEKLN32 6 0 1.0899 6.5601 46.40000    959 DI 150 166 A
BACHEN11 BACHES11 1 0 0.0144 0.1444        0   2317 DI 380 200 A
BACHEN11 BGRAMM1A 1 0 1.1436 12.104 141.4737   2223 DI   380  10
BACHEN11 XAC_LO11 9 0 0.7844 9.5413 94.12199   2148 DI   380  19
BACHEN12 BACHEN11 1 2      0      0        0 999999 ACHEN380 // 
BAIRLI31 BPEMA+32 2 0 0.2601 0.9099 6.257778    704 DI 150 42 AI
BALEGR11 BLIXHE11 5 0 0.0033 0.0500 24.53406   1591 DI 380 115 A
BALEGR11 XLI_OB1B 1 0 0.0009 0.0500 7.445575   1635 DI 380 F 1 A
BALZ  31 BLANLO32 2 0 0.0450 0.3110 2.800000   1143 DI 150 252 A
BALZ  33 BLANLO31 3 0 0.0081 0.0500 0.320000    959 DI 150 253 A
BALZ  34 BLANLO31 4 0 0.0081 0.0500 0.320000    959 DI 150 254 A
BALZ  32 BLANLO31 1 0 0.0511 0.3510 2.924444    959 DI 150 251 A
BAMERC3C BGOUY 31 6 0 0.1179 1.0301 1108.418   1501 DI 150 406 A
BAMERC31 BDAMPR3R 9 0 0.1849 0.9338 17.79915   1265 DI 150 89 AM
BAMERC31 BGOUY 32 8 0 0.4021 1.9710 47.80444   1265 DI 150 88 AM
BAMOCO31 BCAMOC31 1 0 0.2000 0.1899 73.77778    385 DI 150 321 A
BAMOCO31 BHEZE 31 2 0 0.2430 1.8976 13.23222   1143 DI 150 142 A
BAMOCO31 BMEERH32 6 0 0.2740 1.9310 14.00000   1143 DI 150 156 A
BANDUM31 BLANLO31 1 0 0.0590 0.4180 15.20000   2461 DI 150 391 A
BANDUM30 BANDUM31 1 2      0      0        0 999999 ANDUM150 391
BANDUM30 BANDUM32 1 2      0      0        0 999999 ANDUM150 // 
BANDUM32 BANDUM31 1 2      0      0        0 999999 ANDUM150 391
BANDUM32 BANDUM33 1 2      0      0        0 999999 ANDUM150 T 2
BANDUM1R BZUTE+1R 2 0 0.2092 1.9776 22.96728   2120 DI   380  12
BANS  31 BAWIRS31 6 0 0.8600 4.6752 42.77959   1057 DI 150 426 A
BANS  31 BLIXHE31 1 0 0.7555 4.6068 99.68917   1187 DI 150 151 A
BANS  32 BANS  31 1 2      0      0        0 999999 ANS  150 // 
BANS  32 BBRESS31 2 0 1.1792 5.1909 44.80824    704 DI 150 152 A
BANS  32 BGRAMM3A 4 0 1.5654 9.5394 77.04900   1120 DI 150 294 A
BANTOI31 BGAURA3R 6 0 0.7890 2.8238 19.50338    724 DI 150 76 AN
BANTOI31 BGAURA32 4 0 0.7821 2.8019 19.34222    722 DI 150 44 AN
BANTOI31 BMARQ+3R 1 0 1.6339 3.9301 26.72000    551 DI 150 50 AN
BATOFI3A BMALEC31 3 0 0.0200 0.0500 4.576000    616 DI 150 333 A
BATOFI3A BPP3  3A 3 0 0.0044 0.0500 1.702222    616 DI 150 333 A
BATOFI3B BMALEC32 4 0 0.0227 0.0511 5.192000    616 DI 150 334 A
BATOFI3B BPP3  3B 4 0 0.0044 0.0500 1.702222    616 DI 150 334 A
BAUBAN23 XAU_MO22 3 0 0.4404 3.4752 13.71395   1292 DI   220 513
BAUBAN21 BBIFF+22 2 0 0.5837 4.2367 26.10859   1050 DI 220 512 A
BAUBAN21 BESCH 2C 1 0 0.8818 6.1772 43.01818   1037 DI 220 511 A
BAUBAN21 BVILLE22 6 0 4.0119 14.160 154.1570   1127 DI 220 506 A
BAUBAN21 XAU_M.21 4 8 0.1068 0.8066 6.263595   1292 DI   220 514
BAUBAN22 BAUBAN21 1 2      0      0        0 999999 AUBAN220 // 
BAUBAN22 BHEINS23 7 0 1.6030 4.4102 48.97934   1127 DI 220 507 A
BAUBAN22 BLATO+2R 5 0 1.1940 6.1691 43.40083    943 DI 220 515 A
BAUBAN22 BSMARD21 6 0 1.6199 8.3979 59.00000    943 DI 220 516 A
BAUBAN11 BBRUME12 3 0 3.5493 32.883 379.3569   2317 DI 380 13 AU
BAUVEL3R BTERGN31 6 0 0.6620 2.0189 13.93778    653 DI 150 96 AU
BAUVEL33 BTERGN31 F 0 0.2529 1.5869 12.88000   1000 DI 150 176 A
BAUVEL32 BTERGN32 7 0 0.3200 1.8700 12.99556   1000 DI 150 177 A
BAVERN3R BAVERN31 1 2      0      0        0  38486 AVERN150 T1/
BAVERN3S BAVERN31 1 2      0      0        0  38486 AVERN150 T2/
BAVERN31 BLANDN3R 9 0 0.1199 0.6201 582.7822   1132 DI 150 259 A
BAVERN31 BTIBIS31 1 0 0.3800 3.0211 5484.000   2117 DI 150 180 A
BAVERN32 BAVERN31 1 2      0      0        0 999999 AVERN150 // 
BAVERN32 BTIEN+3R 6 0 0.4079 2.1231 1999.556   1024 DI 150 46 AV
BAVERN32 BTIEN+32 1 0 0.4079 2.1231 1999.556   1024 DI 150 260 A
BAVLGM31 BRUIEN33 7 0 0.0260 0.2643 6.702400   2284 DI 150 167 A
BAVLGM32 BRUIEN32 1 0 0.0331 0.3449 4.177778   2461 DI 150 290 A
BAVLGM11 BHORTA11 1 0 0.6749 12.188 147.3664   4340 DI   380 101
BAVLGM11 BIZGEM12 7 0 0.7061 7.4756 87.64957   2317 DI 380 47 AV
BAVLGM11 XAV_AV11 1 8 0.5705 6.5764 77.30835   2461 DI   380  80
BAVLGM12 BAVLGM11 1 2      0      0        0 999999 AVLGM380 // 
BAVLGM12 BHORTA12 2 0 0.7132 12.165 147.0880   4340 DI   380 102
BAVLGM12 BIZGEM1R 6 0 0.7061 7.4756 87.64957   2317 DI 380 46 AV
BAVLGM12 XAV_MA11 9 0 0.6537 11.804 142.6495   4260 DI   380  79
BAWIRS31 BTIHA+3R 3 0 0.6032 4.0739 46.84934   1257 DI 150 293 A
BAWIRS21 BLEVAL21 1 0 0.3301 2.6402 18.64876   1158 DI 220 521 A
BAWIRS21 BRIMIE22 5 0 0.4719 3.1291 20.06198   1035 DI 220 535 A
BBAISY31 BBASSW3R 5 0 1.4400 6.6400 1020.000    942 DI 150 245 B
BBAISY31 BBRAIN31 9 8 0.3141 2.2959 1121.129   1116 DI 150 349 B
BBAISY31 BCORBA3R 6 0 1.1041 5.3890 38.77333    959 DI 150 246 B
BBAISY31 BGOUY 32 8 0 2.3846 10.524 73.40544    978 DI 150 348 B
BBAISY31 BVIEU+3R 7 0 0.5931 3.1500 22.16000    959 DI 150 347 B
BBALEN32 BBALEN3_ 1 0 0.0160 0.0490 0.311111    735 DI 150 110 B
BBALEN32 BMOL  32 1 0 0.6799 3.5019 25.03111    959 DI 150 110 B
BBALEN32 BOVERP31 1 0 1.8740 5.8430 37.11111    735 DI 150 110 B
BBALEN3R BBALEN31 1 2      0      0        0  38486 BALEN150 109
BBALEN3R BLOMME31 9 0 0.7479 3.0800 21.58222    735 DI 150 109 B
BBALEN3R BMOL  31 9 0 0.6799 3.5001 24.99556    959 DI 150 109 B
BBALEN31 BUMBAL3R 1 0 0.0594 0.2131 1.466667    735 DI 150 301 B
BBALEN3_ BUMBAL32 2 0 0.0594 0.2131 1.466667    735 DI 150 302 B
BBALEN3_ BUMBAL33 4 0 0.0590 0.2113 1.457778    735 DI 150 304 B
BBASCO3R BFONT+3  3 0 1.2960 3.9552 27.30240    632 DI 150 73 BA
BBASCO3R BVHAIN33 3 0 2.3254 7.3306 46.55696    734 DI 150 73 BA
BBASCO32 BFONTA3R 2 0 1.2513 3.9857 26.36104    632 DI 150 412 B
BBASCO32 BVHAIN34 2 0 2.0230 6.9190 47.78700    735 DI 150 412 B
BBASF 3_ BZANDV30 1 0 0.1129 0.3885 2.187500    731 DI 150 111 B
BBASF 34 BZANDV32 2 0 0.1059 0.3681 146.2180    507 DI 150 112 B
BBASF 31 BZANDV30 4 0 0.0428 0.2327 179.1440   1097 DI 150 104 B
BBASF 3B BBASF 31 1 2      0      0        0 999999 BASF 150 // 
BBASF 3B BZANDV30 7 0 0.0498 0.2221 198.4343    962 DI 150 197 B
BBASF 32 BBASF 31 1 2      0      0        0 999999 BASF 150 // 
BBASF 32 BZANDV32 6 0 0.0531 0.2163 196.5691    962 DI 150 196 B
BBASF 3A BBASF 3B 1 7      0      0        0 999999 BASF 150 // 
BBASF 3A BBASF 32 1 2      0      0        0 999999 BASF 150 // 
BBASF 3A BNORDL31 2 0 0.0220 0.1220 345.9181   2078 DI 150 382 B
BBASTO2R BSENO+2R 1 0 0.1302 0.4501 4.900826   1127 DI 220 501 B
BBATTI3R BCHER+3R 8 0 0.2181 1.3471 1228.473   1130 DI 150 318 B
BBATTI3R BEUPEN32 8 0 1.9125 6.4025 116.7093    670 DI 150 318 B
BBAUDO31 BCHIEV31 3 0 2.0709 7.0040 48.41778    714 DI 150 313 B
BBAUDO31 BJEMAP3R 7 0 0.4700 1.5901 11.00444    714 DI 150 87 BA
...